LTspice 26.0.1 for Windows
Circuit: C:\Users\Kanak Pradhan\OneDrive\Desktop\verilog_project\C5_models\C5_models.txt
Start Time: Mon Apr 27 11:32:58 2026
No analysis specified.