LTspice 26.0.1 for Windows
Circuit: C:\Users\Kanak Pradhan\OneDrive\Desktop\verilog_project\C5_models\commonsourceampr_1.spi
Start Time: Mon Apr 27 12:42:04 2026
Ignoring BSIM parameter XL
Ignoring BSIM parameter XW
solver = Normal
Maximum thread count: 14
tnom = 27
temp = 27
method = trap
Warning: Pd = 0 is less than W.
Warning: Ps = 0 is less than W.
Warning: Pd = 0 is less than W.
Warning: Ps = 0 is less than W.
No AC stimulus found:
     Set the value of a current or voltage source to "AC 1."
     to make it behave as a signal generator for AC analysis.
Direct Newton iteration succeeded in finding operating point.
Total elapsed time: 0.042 seconds.

Files loaded:
C:\Users\Kanak Pradhan\OneDrive\Desktop\verilog_project\C5_models\commonsourceampr_1.spi
C:\Users\Kanak Pradhan\OneDrive\Desktop\verilog_project\C5_models\C5_models.txt

