LTspice 26.0.1 for Windows
Circuit: C:\Users\Kanak Pradhan\OneDrive\Desktop\verilog_project\C5_models\commondrainampr_1.spi
Start Time: Wed Apr 29 11:29:23 2026
Ignoring BSIM parameter XL
Ignoring BSIM parameter XW
solver = Normal
Maximum thread count: 14
tnom = 27
temp = 27
method = trap
Direct Newton iteration succeeded in finding operating point.
Total elapsed time: 0.172 seconds.

Files loaded:
C:\Users\Kanak Pradhan\OneDrive\Desktop\verilog_project\C5_models\commondrainampr_1.spi
C:\Users\Kanak Pradhan\OneDrive\Desktop\verilog_project\C5_models\C5_models.txt

